PV-ING fuentes/UnifilarEdificioNuevoUnne_mdl.m
Bus.con = [ ... 
  1  0.23  1  0  1  1;
  2  0.23  1  0  1  1;
  3  0.23  1  0  1  1;
  4  0.23  1  0  1  1;
 ];

Line.con = [ ... 
  3  4  0.01  0.23  50  0  0  0.0378  0.00204  0  0  0  0  0  0  1;
  2  3  0.01  0.23  50  0  0  0.0037  0.00063  0  0  0  0  0  0  1;
  4  1  0.01  0.23  50  0  0  0.0491  0.00035  0  0  0  0  0  0  1;
 ];

SW.con = [ ... 
  2  0.01  0.23  0.85  0  100  -100  1.5  0.6  0.8  1  1  1;
 ];

PQ.con = [ ... 
  3  0.01  0.23  0.5  0.5  1.6  0.6  0  1;
  4  0.01  0.23  0.1  0.1  1.6  0.6  0  1;
  2  0.01  0.23  1  1  1.6  0.6  0  1;
 ];

PQgen.con = [ ... 
  1  0.01  0.23  0.45261  -0.1  1.1  0.9  0  1;
 ];

Bus.names = {... 
  'TCA-SFCR'; 'TG'; 'TS1'; 'TS5'};

